3

O 6.1711935  6.8422893  6.1072177
H 5.2923411  6.5769784  6.4017559
H 6.7678454  6.3436623  6.6771264
3

O 6.1711935  6.8422893  6.1072177
H 5.2921488  6.6069823  6.4282084
H 6.7680377  6.3136585  6.6506739
3

O 6.1711935  6.8422893  6.1072177
H 5.2940001  6.6366214  6.4550058
H 6.7661864  6.2840194  6.6238766
3

O 6.1711935  6.8422893  6.1072177
H 5.2921488  6.6069823  6.4282084
H 6.7680377  6.3136585  6.6506739
3

O 6.1711935  6.8422893  6.1072177
H 5.2923411  6.5769784  6.4017559
H 6.7678454  6.3436623  6.6771264
3

O 6.1711935  6.8422893  6.1072177
H 5.2925335  6.5469746  6.3753035
H 6.767653  6.3736661  6.7035788
3

O 6.1711935  6.8422893  6.1072177
H 5.2947691  6.5166891  6.3492691
H 6.7654174  6.4039516  6.7296133
3

O 6.1711935  6.8422893  6.1072177
H 5.2925335  6.5469746  6.3753035
H 6.767653  6.3736661  6.7035788
