3

O 6.1711935  6.8422893  6.1072177
H 5.2923411  6.5769784  6.4017559
H 6.7678454  6.3436623  6.6771264
3

O 6.1726568  6.8462513  6.1027344
H 5.2558787  6.565971  6.4139759
H 6.7926011  6.3229737  6.7007725
3

O 6.1741292  6.8502376  6.0982236
H 5.2194959  6.554848  6.4263277
H 6.8172052  6.302206  6.7245072
3

O 6.1726568  6.8462513  6.1027344
H 5.2558787  6.565971  6.4139759
H 6.7926011  6.3229737  6.7007725
3

O 6.1711935  6.8422893  6.1072177
H 5.2923411  6.5769784  6.4017559
H 6.7678454  6.3436623  6.6771264
3

O 6.1697302  6.8383273  6.111701
H 5.3288036  6.5879858  6.3895359
H 6.7430896  6.3643508  6.6534803
3

O 6.1682767  6.8343921  6.1161539
H 5.3653522  6.5988663  6.3774606
H 6.7181686  6.3849522  6.6299319
3

O 6.1697302  6.8383273  6.111701
H 5.3288036  6.5879858  6.3895359
H 6.7430896  6.3643508  6.6534803
