2
50	0.00120944
O  11.19106945  3.336496909  25.6431457
H  10.62722343  2.658995448  26.07570998
2
100	0.00241888
O  11.19106945  3.336496909  25.6431457
H  10.62722343  2.658995448  26.07570998
2
150	0.00362833
O  11.19106945  3.336496909  25.6431457
H  10.62722343  2.658995448  26.07570998
2
200	0.00483777
O  11.19106945  3.336496909  25.6431457
H  10.62722343  2.658995448  26.07570998
2
250	0.00604721
O  11.19106945  3.336496909  25.6431457
H  10.62722343  2.658995448  26.07570998
2
300	0.00725665
O  11.19106945  3.336496909  25.6431457
H  10.62722343  2.658995448  26.07570998
2
350	0.0084661
O  11.19106945  3.336496909  25.6431457
H  10.62722343  2.658995448  26.07570998
2
400	0.00967554
O  11.19106945  3.336496909  25.6431457
H  10.62722343  2.658995448  26.07570998
2
450	0.01088498
O  11.19106945  3.336496909  25.6431457
H  10.62722343  2.658995448  26.07570998
